<routes>
            <vType accel="1.0" decel="4.5" id="standard_car" length="5.0" minGap="2.5" maxSpeed="25" sigma="0.5" />

            <route id="W_N" edges="W2TL TL2N"/>
            <route id="W_E" edges="W2TL TL2E"/>
            <route id="W_S" edges="W2TL TL2S"/>
            <route id="N_W" edges="N2TL TL2W"/>
            <route id="N_E" edges="N2TL TL2E"/>
            <route id="N_S" edges="N2TL TL2S"/>
            <route id="E_W" edges="E2TL TL2W"/>
            <route id="E_N" edges="E2TL TL2N"/>
            <route id="E_S" edges="E2TL TL2S"/>
            <route id="S_W" edges="S2TL TL2W"/>
            <route id="S_N" edges="S2TL TL2N"/>
            <route id="S_E" edges="S2TL TL2E"/>
    <vehicle id="E_W_0" type="standard_car" route="E_W" depart="25.0" departLane="random" departSpeed="10" />
    <vehicle id="S_N_1" type="standard_car" route="S_N" depart="54.0" departLane="random" departSpeed="10" />
    <vehicle id="W_E_2" type="standard_car" route="W_E" depart="68.0" departLane="random" departSpeed="10" />
    <vehicle id="N_S_3" type="standard_car" route="N_S" depart="69.0" departLane="random" departSpeed="10" />
    <vehicle id="S_N_4" type="standard_car" route="S_N" depart="70.0" departLane="random" departSpeed="10" />
    <vehicle id="S_N_5" type="standard_car" route="S_N" depart="79.0" departLane="random" departSpeed="10" />
    <vehicle id="S_N_6" type="standard_car" route="S_N" depart="82.0" departLane="random" departSpeed="10" />
    <vehicle id="N_S_7" type="standard_car" route="N_S" depart="90.0" departLane="random" departSpeed="10" />
    <vehicle id="N_S_8" type="standard_car" route="N_S" depart="92.0" departLane="random" departSpeed="10" />
    <vehicle id="N_W_9" type="standard_car" route="N_W" depart="92.0" departLane="random" departSpeed="10" />
    <vehicle id="S_N_10" type="standard_car" route="S_N" depart="99.0" departLane="random" departSpeed="10" />
    <vehicle id="N_S_11" type="standard_car" route="N_S" depart="107.0" departLane="random" departSpeed="10" />
    <vehicle id="N_S_12" type="standard_car" route="N_S" depart="116.0" departLane="random" departSpeed="10" />
    <vehicle id="S_N_13" type="standard_car" route="S_N" depart="127.0" departLane="random" departSpeed="10" />
    <vehicle id="N_S_14" type="standard_car" route="N_S" depart="130.0" departLane="random" departSpeed="10" />
    <vehicle id="N_S_15" type="standard_car" route="N_S" depart="131.0" departLane="random" departSpeed="10" />
    <vehicle id="N_S_16" type="standard_car" route="N_S" depart="132.0" departLane="random" departSpeed="10" />
    <vehicle id="W_E_17" type="standard_car" route="W_E" depart="135.0" departLane="random" departSpeed="10" />
    <vehicle id="E_W_18" type="standard_car" route="E_W" depart="137.0" departLane="random" departSpeed="10" />
    <vehicle id="E_W_19" type="standard_car" route="E_W" depart="141.0" departLane="random" departSpeed="10" />
    <vehicle id="E_W_20" type="standard_car" route="E_W" depart="150.0" departLane="random" departSpeed="10" />
    <vehicle id="E_W_21" type="standard_car" route="E_W" depart="152.0" departLane="random" departSpeed="10" />
    <vehicle id="W_E_22" type="standard_car" route="W_E" depart="153.0" departLane="random" departSpeed="10" />
    <vehicle id="W_S_23" type="standard_car" route="W_S" depart="156.0" departLane="random" departSpeed="10" />
    <vehicle id="S_W_24" type="standard_car" route="S_W" depart="156.0" departLane="random" departSpeed="10" />
    <vehicle id="W_E_25" type="standard_car" route="W_E" depart="160.0" departLane="random" departSpeed="10" />
    <vehicle id="N_S_26" type="standard_car" route="N_S" depart="162.0" departLane="random" departSpeed="10" />
    <vehicle id="W_E_27" type="standard_car" route="W_E" depart="165.0" departLane="random" departSpeed="10" />
    <vehicle id="W_E_28" type="standard_car" route="W_E" depart="169.0" departLane="random" departSpeed="10" />
    <vehicle id="N_S_29" type="standard_car" route="N_S" depart="169.0" departLane="random" departSpeed="10" />
    <vehicle id="N_S_30" type="standard_car" route="N_S" depart="171.0" departLane="random" departSpeed="10" />
    <vehicle id="E_S_31" type="standard_car" route="E_S" depart="172.0" departLane="random" departSpeed="10" />
    <vehicle id="E_N_32" type="standard_car" route="E_N" depart="175.0" departLane="random" departSpeed="10" />
    <vehicle id="E_S_33" type="standard_car" route="E_S" depart="179.0" departLane="random" departSpeed="10" />
    <vehicle id="W_N_34" type="standard_car" route="W_N" depart="185.0" departLane="random" departSpeed="10" />
    <vehicle id="N_S_35" type="standard_car" route="N_S" depart="187.0" departLane="random" departSpeed="10" />
    <vehicle id="E_N_36" type="standard_car" route="E_N" depart="193.0" departLane="random" departSpeed="10" />
    <vehicle id="S_W_37" type="standard_car" route="S_W" depart="194.0" departLane="random" departSpeed="10" />
    <vehicle id="W_E_38" type="standard_car" route="W_E" depart="195.0" departLane="random" departSpeed="10" />
    <vehicle id="N_S_39" type="standard_car" route="N_S" depart="197.0" departLane="random" departSpeed="10" />
    <vehicle id="W_E_40" type="standard_car" route="W_E" depart="202.0" departLane="random" departSpeed="10" />
    <vehicle id="W_E_41" type="standard_car" route="W_E" depart="204.0" departLane="random" departSpeed="10" />
    <vehicle id="E_S_42" type="standard_car" route="E_S" depart="207.0" departLane="random" departSpeed="10" />
    <vehicle id="S_N_43" type="standard_car" route="S_N" depart="209.0" departLane="random" departSpeed="10" />
    <vehicle id="S_N_44" type="standard_car" route="S_N" depart="210.0" departLane="random" departSpeed="10" />
    <vehicle id="N_S_45" type="standard_car" route="N_S" depart="214.0" departLane="random" departSpeed="10" />
    <vehicle id="S_N_46" type="standard_car" route="S_N" depart="219.0" departLane="random" departSpeed="10" />
    <vehicle id="N_S_47" type="standard_car" route="N_S" depart="219.0" departLane="random" departSpeed="10" />
    <vehicle id="W_E_48" type="standard_car" route="W_E" depart="225.0" departLane="random" departSpeed="10" />
    <vehicle id="E_N_49" type="standard_car" route="E_N" depart="231.0" departLane="random" departSpeed="10" />
    <vehicle id="S_N_50" type="standard_car" route="S_N" depart="233.0" departLane="random" departSpeed="10" />
    <vehicle id="N_S_51" type="standard_car" route="N_S" depart="235.0" departLane="random" departSpeed="10" />
    <vehicle id="W_N_52" type="standard_car" route="W_N" depart="238.0" departLane="random" departSpeed="10" />
    <vehicle id="N_S_53" type="standard_car" route="N_S" depart="239.0" departLane="random" departSpeed="10" />
    <vehicle id="S_N_54" type="standard_car" route="S_N" depart="239.0" departLane="random" departSpeed="10" />
    <vehicle id="N_S_55" type="standard_car" route="N_S" depart="239.0" departLane="random" departSpeed="10" />
    <vehicle id="N_S_56" type="standard_car" route="N_S" depart="242.0" departLane="random" departSpeed="10" />
    <vehicle id="W_E_57" type="standard_car" route="W_E" depart="245.0" departLane="random" departSpeed="10" />
    <vehicle id="E_W_58" type="standard_car" route="E_W" depart="246.0" departLane="random" departSpeed="10" />
    <vehicle id="S_N_59" type="standard_car" route="S_N" depart="246.0" departLane="random" departSpeed="10" />
    <vehicle id="S_N_60" type="standard_car" route="S_N" depart="248.0" departLane="random" departSpeed="10" />
    <vehicle id="E_W_61" type="standard_car" route="E_W" depart="254.0" departLane="random" departSpeed="10" />
    <vehicle id="W_E_62" type="standard_car" route="W_E" depart="257.0" departLane="random" departSpeed="10" />
    <vehicle id="S_N_63" type="standard_car" route="S_N" depart="259.0" departLane="random" departSpeed="10" />
    <vehicle id="S_N_64" type="standard_car" route="S_N" depart="259.0" departLane="random" departSpeed="10" />
    <vehicle id="N_S_65" type="standard_car" route="N_S" depart="265.0" departLane="random" departSpeed="10" />
    <vehicle id="N_S_66" type="standard_car" route="N_S" depart="266.0" departLane="random" departSpeed="10" />
    <vehicle id="S_N_67" type="standard_car" route="S_N" depart="267.0" departLane="random" departSpeed="10" />
    <vehicle id="S_N_68" type="standard_car" route="S_N" depart="268.0" departLane="random" departSpeed="10" />
    <vehicle id="N_S_69" type="standard_car" route="N_S" depart="269.0" departLane="random" departSpeed="10" />
    <vehicle id="E_W_70" type="standard_car" route="E_W" depart="270.0" departLane="random" departSpeed="10" />
    <vehicle id="E_W_71" type="standard_car" route="E_W" depart="274.0" departLane="random" departSpeed="10" />
    <vehicle id="E_W_72" type="standard_car" route="E_W" depart="278.0" departLane="random" departSpeed="10" />
    <vehicle id="W_E_73" type="standard_car" route="W_E" depart="280.0" departLane="random" departSpeed="10" />
    <vehicle id="S_E_74" type="standard_car" route="S_E" depart="282.0" departLane="random" departSpeed="10" />
    <vehicle id="S_N_75" type="standard_car" route="S_N" depart="282.0" departLane="random" departSpeed="10" />
    <vehicle id="N_E_76" type="standard_car" route="N_E" depart="284.0" departLane="random" departSpeed="10" />
    <vehicle id="N_S_77" type="standard_car" route="N_S" depart="289.0" departLane="random" departSpeed="10" />
    <vehicle id="S_N_78" type="standard_car" route="S_N" depart="290.0" departLane="random" departSpeed="10" />
    <vehicle id="S_N_79" type="standard_car" route="S_N" depart="292.0" departLane="random" departSpeed="10" />
    <vehicle id="W_E_80" type="standard_car" route="W_E" depart="297.0" departLane="random" departSpeed="10" />
    <vehicle id="E_W_81" type="standard_car" route="E_W" depart="297.0" departLane="random" departSpeed="10" />
    <vehicle id="S_N_82" type="standard_car" route="S_N" depart="302.0" departLane="random" departSpeed="10" />
    <vehicle id="S_E_83" type="standard_car" route="S_E" depart="304.0" departLane="random" departSpeed="10" />
    <vehicle id="N_S_84" type="standard_car" route="N_S" depart="307.0" departLane="random" departSpeed="10" />
    <vehicle id="W_E_85" type="standard_car" route="W_E" depart="308.0" departLane="random" departSpeed="10" />
    <vehicle id="N_S_86" type="standard_car" route="N_S" depart="309.0" departLane="random" departSpeed="10" />
    <vehicle id="N_S_87" type="standard_car" route="N_S" depart="310.0" departLane="random" departSpeed="10" />
    <vehicle id="N_E_88" type="standard_car" route="N_E" depart="311.0" departLane="random" departSpeed="10" />
    <vehicle id="W_E_89" type="standard_car" route="W_E" depart="312.0" departLane="random" departSpeed="10" />
    <vehicle id="S_N_90" type="standard_car" route="S_N" depart="321.0" departLane="random" departSpeed="10" />
    <vehicle id="E_W_91" type="standard_car" route="E_W" depart="322.0" departLane="random" departSpeed="10" />
    <vehicle id="N_S_92" type="standard_car" route="N_S" depart="324.0" departLane="random" departSpeed="10" />
    <vehicle id="W_N_93" type="standard_car" route="W_N" depart="330.0" departLane="random" departSpeed="10" />
    <vehicle id="E_W_94" type="standard_car" route="E_W" depart="334.0" departLane="random" departSpeed="10" />
    <vehicle id="S_N_95" type="standard_car" route="S_N" depart="335.0" departLane="random" departSpeed="10" />
    <vehicle id="S_E_96" type="standard_car" route="S_E" depart="337.0" departLane="random" departSpeed="10" />
    <vehicle id="W_S_97" type="standard_car" route="W_S" depart="339.0" departLane="random" departSpeed="10" />
    <vehicle id="N_S_98" type="standard_car" route="N_S" depart="340.0" departLane="random" departSpeed="10" />
    <vehicle id="E_S_99" type="standard_car" route="E_S" depart="343.0" departLane="random" departSpeed="10" />
    <vehicle id="N_S_100" type="standard_car" route="N_S" depart="344.0" departLane="random" departSpeed="10" />
    <vehicle id="S_N_101" type="standard_car" route="S_N" depart="345.0" departLane="random" departSpeed="10" />
    <vehicle id="E_N_102" type="standard_car" route="E_N" depart="349.0" departLane="random" departSpeed="10" />
    <vehicle id="W_E_103" type="standard_car" route="W_E" depart="351.0" departLane="random" departSpeed="10" />
    <vehicle id="S_N_104" type="standard_car" route="S_N" depart="351.0" departLane="random" departSpeed="10" />
    <vehicle id="N_W_105" type="standard_car" route="N_W" depart="354.0" departLane="random" departSpeed="10" />
    <vehicle id="N_S_106" type="standard_car" route="N_S" depart="355.0" departLane="random" departSpeed="10" />
    <vehicle id="N_E_107" type="standard_car" route="N_E" depart="357.0" departLane="random" departSpeed="10" />
    <vehicle id="N_S_108" type="standard_car" route="N_S" depart="360.0" departLane="random" departSpeed="10" />
    <vehicle id="E_W_109" type="standard_car" route="E_W" depart="361.0" departLane="random" departSpeed="10" />
    <vehicle id="E_W_110" type="standard_car" route="E_W" depart="361.0" departLane="random" departSpeed="10" />
    <vehicle id="N_W_111" type="standard_car" route="N_W" depart="367.0" departLane="random" departSpeed="10" />
    <vehicle id="S_N_112" type="standard_car" route="S_N" depart="375.0" departLane="random" departSpeed="10" />
    <vehicle id="S_N_113" type="standard_car" route="S_N" depart="376.0" departLane="random" departSpeed="10" />
    <vehicle id="E_W_114" type="standard_car" route="E_W" depart="377.0" departLane="random" departSpeed="10" />
    <vehicle id="S_N_115" type="standard_car" route="S_N" depart="377.0" departLane="random" departSpeed="10" />
    <vehicle id="W_E_116" type="standard_car" route="W_E" depart="377.0" departLane="random" departSpeed="10" />
    <vehicle id="W_E_117" type="standard_car" route="W_E" depart="380.0" departLane="random" departSpeed="10" />
    <vehicle id="E_N_118" type="standard_car" route="E_N" depart="381.0" departLane="random" departSpeed="10" />
    <vehicle id="E_N_119" type="standard_car" route="E_N" depart="382.0" departLane="random" departSpeed="10" />
    <vehicle id="E_W_120" type="standard_car" route="E_W" depart="387.0" departLane="random" departSpeed="10" />
    <vehicle id="W_S_121" type="standard_car" route="W_S" depart="391.0" departLane="random" departSpeed="10" />
    <vehicle id="W_N_122" type="standard_car" route="W_N" depart="392.0" departLane="random" departSpeed="10" />
    <vehicle id="S_N_123" type="standard_car" route="S_N" depart="395.0" departLane="random" departSpeed="10" />
    <vehicle id="E_W_124" type="standard_car" route="E_W" depart="396.0" departLane="random" departSpeed="10" />
    <vehicle id="E_W_125" type="standard_car" route="E_W" depart="397.0" departLane="random" departSpeed="10" />
    <vehicle id="N_S_126" type="standard_car" route="N_S" depart="398.0" departLane="random" departSpeed="10" />
    <vehicle id="S_N_127" type="standard_car" route="S_N" depart="398.0" departLane="random" departSpeed="10" />
    <vehicle id="N_E_128" type="standard_car" route="N_E" depart="399.0" departLane="random" departSpeed="10" />
    <vehicle id="S_N_129" type="standard_car" route="S_N" depart="399.0" departLane="random" departSpeed="10" />
    <vehicle id="S_N_130" type="standard_car" route="S_N" depart="400.0" departLane="random" departSpeed="10" />
    <vehicle id="E_S_131" type="standard_car" route="E_S" depart="406.0" departLane="random" departSpeed="10" />
    <vehicle id="N_S_132" type="standard_car" route="N_S" depart="409.0" departLane="random" departSpeed="10" />
    <vehicle id="N_S_133" type="standard_car" route="N_S" depart="410.0" departLane="random" departSpeed="10" />
    <vehicle id="W_E_134" type="standard_car" route="W_E" depart="412.0" departLane="random" departSpeed="10" />
    <vehicle id="S_N_135" type="standard_car" route="S_N" depart="413.0" departLane="random" departSpeed="10" />
    <vehicle id="W_E_136" type="standard_car" route="W_E" depart="419.0" departLane="random" departSpeed="10" />
    <vehicle id="E_W_137" type="standard_car" route="E_W" depart="420.0" departLane="random" departSpeed="10" />
    <vehicle id="S_N_138" type="standard_car" route="S_N" depart="421.0" departLane="random" departSpeed="10" />
    <vehicle id="E_W_139" type="standard_car" route="E_W" depart="424.0" departLane="random" departSpeed="10" />
    <vehicle id="S_N_140" type="standard_car" route="S_N" depart="427.0" departLane="random" departSpeed="10" />
    <vehicle id="W_E_141" type="standard_car" route="W_E" depart="438.0" departLane="random" departSpeed="10" />
    <vehicle id="N_S_142" type="standard_car" route="N_S" depart="442.0" departLane="random" departSpeed="10" />
    <vehicle id="E_W_143" type="standard_car" route="E_W" depart="442.0" departLane="random" departSpeed="10" />
    <vehicle id="S_N_144" type="standard_car" route="S_N" depart="443.0" departLane="random" departSpeed="10" />
    <vehicle id="N_S_145" type="standard_car" route="N_S" depart="443.0" departLane="random" departSpeed="10" />
    <vehicle id="S_N_146" type="standard_car" route="S_N" depart="444.0" departLane="random" departSpeed="10" />
    <vehicle id="E_W_147" type="standard_car" route="E_W" depart="447.0" departLane="random" departSpeed="10" />
    <vehicle id="E_W_148" type="standard_car" route="E_W" depart="451.0" departLane="random" departSpeed="10" />
    <vehicle id="W_E_149" type="standard_car" route="W_E" depart="452.0" departLane="random" departSpeed="10" />
    <vehicle id="E_W_150" type="standard_car" route="E_W" depart="454.0" departLane="random" departSpeed="10" />
    <vehicle id="S_E_151" type="standard_car" route="S_E" depart="454.0" departLane="random" departSpeed="10" />
    <vehicle id="W_E_152" type="standard_car" route="W_E" depart="455.0" departLane="random" departSpeed="10" />
    <vehicle id="N_S_153" type="standard_car" route="N_S" depart="456.0" departLane="random" departSpeed="10" />
    <vehicle id="S_N_154" type="standard_car" route="S_N" depart="457.0" departLane="random" departSpeed="10" />
    <vehicle id="N_S_155" type="standard_car" route="N_S" depart="458.0" departLane="random" departSpeed="10" />
    <vehicle id="E_W_156" type="standard_car" route="E_W" depart="458.0" departLane="random" departSpeed="10" />
    <vehicle id="E_N_157" type="standard_car" route="E_N" depart="462.0" departLane="random" departSpeed="10" />
    <vehicle id="E_W_158" type="standard_car" route="E_W" depart="462.0" departLane="random" departSpeed="10" />
    <vehicle id="E_W_159" type="standard_car" route="E_W" depart="463.0" departLane="random" departSpeed="10" />
    <vehicle id="N_S_160" type="standard_car" route="N_S" depart="467.0" departLane="random" departSpeed="10" />
    <vehicle id="N_W_161" type="standard_car" route="N_W" depart="470.0" departLane="random" departSpeed="10" />
    <vehicle id="S_N_162" type="standard_car" route="S_N" depart="471.0" departLane="random" departSpeed="10" />
    <vehicle id="S_N_163" type="standard_car" route="S_N" depart="473.0" departLane="random" departSpeed="10" />
    <vehicle id="W_E_164" type="standard_car" route="W_E" depart="476.0" departLane="random" departSpeed="10" />
    <vehicle id="W_E_165" type="standard_car" route="W_E" depart="477.0" departLane="random" departSpeed="10" />
    <vehicle id="N_S_166" type="standard_car" route="N_S" depart="479.0" departLane="random" departSpeed="10" />
    <vehicle id="E_W_167" type="standard_car" route="E_W" depart="482.0" departLane="random" departSpeed="10" />
    <vehicle id="S_N_168" type="standard_car" route="S_N" depart="484.0" departLane="random" departSpeed="10" />
    <vehicle id="E_W_169" type="standard_car" route="E_W" depart="486.0" departLane="random" departSpeed="10" />
    <vehicle id="N_S_170" type="standard_car" route="N_S" depart="487.0" departLane="random" departSpeed="10" />
    <vehicle id="E_W_171" type="standard_car" route="E_W" depart="490.0" departLane="random" departSpeed="10" />
    <vehicle id="N_S_172" type="standard_car" route="N_S" depart="491.0" departLane="random" departSpeed="10" />
    <vehicle id="W_E_173" type="standard_car" route="W_E" depart="494.0" departLane="random" departSpeed="10" />
    <vehicle id="W_E_174" type="standard_car" route="W_E" depart="495.0" departLane="random" departSpeed="10" />
    <vehicle id="E_S_175" type="standard_car" route="E_S" depart="496.0" departLane="random" departSpeed="10" />
    <vehicle id="N_S_176" type="standard_car" route="N_S" depart="496.0" departLane="random" departSpeed="10" />
    <vehicle id="E_S_177" type="standard_car" route="E_S" depart="502.0" departLane="random" departSpeed="10" />
    <vehicle id="W_E_178" type="standard_car" route="W_E" depart="507.0" departLane="random" departSpeed="10" />
    <vehicle id="W_N_179" type="standard_car" route="W_N" depart="512.0" departLane="random" departSpeed="10" />
    <vehicle id="E_W_180" type="standard_car" route="E_W" depart="513.0" departLane="random" departSpeed="10" />
    <vehicle id="E_N_181" type="standard_car" route="E_N" depart="513.0" departLane="random" departSpeed="10" />
    <vehicle id="N_S_182" type="standard_car" route="N_S" depart="514.0" departLane="random" departSpeed="10" />
    <vehicle id="S_N_183" type="standard_car" route="S_N" depart="515.0" departLane="random" departSpeed="10" />
    <vehicle id="S_N_184" type="standard_car" route="S_N" depart="518.0" departLane="random" departSpeed="10" />
    <vehicle id="S_N_185" type="standard_car" route="S_N" depart="521.0" departLane="random" departSpeed="10" />
    <vehicle id="N_S_186" type="standard_car" route="N_S" depart="522.0" departLane="random" departSpeed="10" />
    <vehicle id="S_N_187" type="standard_car" route="S_N" depart="523.0" departLane="random" departSpeed="10" />
    <vehicle id="S_N_188" type="standard_car" route="S_N" depart="529.0" departLane="random" departSpeed="10" />
    <vehicle id="E_W_189" type="standard_car" route="E_W" depart="530.0" departLane="random" departSpeed="10" />
    <vehicle id="W_E_190" type="standard_car" route="W_E" depart="532.0" departLane="random" departSpeed="10" />
    <vehicle id="W_S_191" type="standard_car" route="W_S" depart="533.0" departLane="random" departSpeed="10" />
    <vehicle id="E_S_192" type="standard_car" route="E_S" depart="535.0" departLane="random" departSpeed="10" />
    <vehicle id="W_E_193" type="standard_car" route="W_E" depart="536.0" departLane="random" departSpeed="10" />
    <vehicle id="N_S_194" type="standard_car" route="N_S" depart="537.0" departLane="random" departSpeed="10" />
    <vehicle id="N_S_195" type="standard_car" route="N_S" depart="541.0" departLane="random" departSpeed="10" />
    <vehicle id="S_E_196" type="standard_car" route="S_E" depart="543.0" departLane="random" departSpeed="10" />
    <vehicle id="W_E_197" type="standard_car" route="W_E" depart="549.0" departLane="random" departSpeed="10" />
    <vehicle id="N_S_198" type="standard_car" route="N_S" depart="549.0" departLane="random" departSpeed="10" />
    <vehicle id="W_E_199" type="standard_car" route="W_E" depart="550.0" departLane="random" departSpeed="10" />
    <vehicle id="N_S_200" type="standard_car" route="N_S" depart="561.0" departLane="random" departSpeed="10" />
    <vehicle id="S_E_201" type="standard_car" route="S_E" depart="563.0" departLane="random" departSpeed="10" />
    <vehicle id="E_S_202" type="standard_car" route="E_S" depart="566.0" departLane="random" departSpeed="10" />
    <vehicle id="N_S_203" type="standard_car" route="N_S" depart="567.0" departLane="random" departSpeed="10" />
    <vehicle id="S_N_204" type="standard_car" route="S_N" depart="567.0" departLane="random" departSpeed="10" />
    <vehicle id="W_N_205" type="standard_car" route="W_N" depart="568.0" departLane="random" departSpeed="10" />
    <vehicle id="N_S_206" type="standard_car" route="N_S" depart="568.0" departLane="random" departSpeed="10" />
    <vehicle id="E_N_207" type="standard_car" route="E_N" depart="569.0" departLane="random" departSpeed="10" />
    <vehicle id="S_N_208" type="standard_car" route="S_N" depart="570.0" departLane="random" departSpeed="10" />
    <vehicle id="E_W_209" type="standard_car" route="E_W" depart="570.0" departLane="random" departSpeed="10" />
    <vehicle id="W_E_210" type="standard_car" route="W_E" depart="570.0" departLane="random" departSpeed="10" />
    <vehicle id="E_W_211" type="standard_car" route="E_W" depart="570.0" departLane="random" departSpeed="10" />
    <vehicle id="S_N_212" type="standard_car" route="S_N" depart="570.0" departLane="random" departSpeed="10" />
    <vehicle id="E_W_213" type="standard_car" route="E_W" depart="571.0" departLane="random" departSpeed="10" />
    <vehicle id="S_N_214" type="standard_car" route="S_N" depart="572.0" departLane="random" departSpeed="10" />
    <vehicle id="W_N_215" type="standard_car" route="W_N" depart="573.0" departLane="random" departSpeed="10" />
    <vehicle id="E_S_216" type="standard_car" route="E_S" depart="573.0" departLane="random" departSpeed="10" />
    <vehicle id="N_E_217" type="standard_car" route="N_E" depart="579.0" departLane="random" departSpeed="10" />
    <vehicle id="E_W_218" type="standard_car" route="E_W" depart="582.0" departLane="random" departSpeed="10" />
    <vehicle id="N_S_219" type="standard_car" route="N_S" depart="586.0" departLane="random" departSpeed="10" />
    <vehicle id="S_N_220" type="standard_car" route="S_N" depart="587.0" departLane="random" departSpeed="10" />
    <vehicle id="S_N_221" type="standard_car" route="S_N" depart="588.0" departLane="random" departSpeed="10" />
    <vehicle id="S_N_222" type="standard_car" route="S_N" depart="589.0" departLane="random" departSpeed="10" />
    <vehicle id="N_S_223" type="standard_car" route="N_S" depart="590.0" departLane="random" departSpeed="10" />
    <vehicle id="S_N_224" type="standard_car" route="S_N" depart="592.0" departLane="random" departSpeed="10" />
    <vehicle id="E_W_225" type="standard_car" route="E_W" depart="592.0" departLane="random" departSpeed="10" />
    <vehicle id="S_N_226" type="standard_car" route="S_N" depart="598.0" departLane="random" departSpeed="10" />
    <vehicle id="N_S_227" type="standard_car" route="N_S" depart="600.0" departLane="random" departSpeed="10" />
    <vehicle id="E_W_228" type="standard_car" route="E_W" depart="601.0" departLane="random" departSpeed="10" />
    <vehicle id="E_W_229" type="standard_car" route="E_W" depart="606.0" departLane="random" departSpeed="10" />
    <vehicle id="W_N_230" type="standard_car" route="W_N" depart="608.0" departLane="random" departSpeed="10" />
    <vehicle id="W_N_231" type="standard_car" route="W_N" depart="609.0" departLane="random" departSpeed="10" />
    <vehicle id="E_W_232" type="standard_car" route="E_W" depart="609.0" departLane="random" departSpeed="10" />
    <vehicle id="N_S_233" type="standard_car" route="N_S" depart="611.0" departLane="random" departSpeed="10" />
    <vehicle id="E_N_234" type="standard_car" route="E_N" depart="613.0" departLane="random" departSpeed="10" />
    <vehicle id="N_E_235" type="standard_car" route="N_E" depart="616.0" departLane="random" departSpeed="10" />
    <vehicle id="E_N_236" type="standard_car" route="E_N" depart="619.0" departLane="random" departSpeed="10" />
    <vehicle id="W_E_237" type="standard_car" route="W_E" depart="621.0" departLane="random" departSpeed="10" />
    <vehicle id="W_E_238" type="standard_car" route="W_E" depart="623.0" departLane="random" departSpeed="10" />
    <vehicle id="E_W_239" type="standard_car" route="E_W" depart="623.0" departLane="random" departSpeed="10" />
    <vehicle id="S_N_240" type="standard_car" route="S_N" depart="624.0" departLane="random" departSpeed="10" />
    <vehicle id="N_S_241" type="standard_car" route="N_S" depart="624.0" departLane="random" departSpeed="10" />
    <vehicle id="W_E_242" type="standard_car" route="W_E" depart="628.0" departLane="random" departSpeed="10" />
    <vehicle id="N_S_243" type="standard_car" route="N_S" depart="628.0" departLane="random" departSpeed="10" />
    <vehicle id="N_E_244" type="standard_car" route="N_E" depart="630.0" departLane="random" departSpeed="10" />
    <vehicle id="E_S_245" type="standard_car" route="E_S" depart="630.0" departLane="random" departSpeed="10" />
    <vehicle id="E_N_246" type="standard_car" route="E_N" depart="633.0" departLane="random" departSpeed="10" />
    <vehicle id="S_N_247" type="standard_car" route="S_N" depart="634.0" departLane="random" departSpeed="10" />
    <vehicle id="N_S_248" type="standard_car" route="N_S" depart="635.0" departLane="random" departSpeed="10" />
    <vehicle id="S_E_249" type="standard_car" route="S_E" depart="635.0" departLane="random" departSpeed="10" />
    <vehicle id="E_W_250" type="standard_car" route="E_W" depart="637.0" departLane="random" departSpeed="10" />
    <vehicle id="W_E_251" type="standard_car" route="W_E" depart="639.0" departLane="random" departSpeed="10" />
    <vehicle id="E_W_252" type="standard_car" route="E_W" depart="642.0" departLane="random" departSpeed="10" />
    <vehicle id="N_S_253" type="standard_car" route="N_S" depart="643.0" departLane="random" departSpeed="10" />
    <vehicle id="S_N_254" type="standard_car" route="S_N" depart="648.0" departLane="random" departSpeed="10" />
    <vehicle id="N_W_255" type="standard_car" route="N_W" depart="651.0" departLane="random" departSpeed="10" />
    <vehicle id="S_N_256" type="standard_car" route="S_N" depart="651.0" departLane="random" departSpeed="10" />
    <vehicle id="N_S_257" type="standard_car" route="N_S" depart="658.0" departLane="random" departSpeed="10" />
    <vehicle id="N_S_258" type="standard_car" route="N_S" depart="661.0" departLane="random" departSpeed="10" />
    <vehicle id="S_N_259" type="standard_car" route="S_N" depart="661.0" departLane="random" departSpeed="10" />